30
N     0.000000     6.928000     0
N     0.000000     12.124000     0
N     0.000000     13.856000     0
N     0.000000     50.228000     0
N     1.500000     44.166000     0
N     3.000000     41.568000     0
N     4.500000     25.114000     0
N     4.500000     32.042000     0
Ga     5.000000     32.908000     0
Ga     5.000000     51.960000     0
N     6.000000     19.052000     0
N     6.000000     27.712000     0
Ga     8.000000     34.640000     0
Ga     9.500000     25.114000     0
Ga     9.500000     28.578000     0
Ga     11.000000     8.660000     0
Ga     11.000000     17.320000     0
N     12.000000     0.000000     0
N     12.000000     50.228000     0
Ga     12.500000     14.722000     0
Ga     12.500000     54.558000     0
N     13.500000     2.598000     0
Ga     14.000000     10.392000     0
Ga     14.000000     15.588000     0
Ga     18.500000     19.918000     0
Ga     18.500000     42.434000     0
N     21.000000     24.248000     0
N     21.000000     48.496000     0
Ga     21.500000     2.598000     0
N     22.500000     0.866000     0
N     22.500000     37.238000     0
